*HEADING
Abaqus Job Created By SimLab 2017.2 .
*******************************************************************************
****		Created at 16:13:41, February 27,2018
****		NODES= 1469
****		ELEMENTS= 800
*******************************************************************************
**NSET COUNT = 1469
*NODE,NSET=NALL
1,                0.00000,        0.00000,      203.20000
2,                0.00000,       33.91643,      222.96590
3,                0.00000,       41.45731,      186.59440
4,                0.00000,       16.95821,      213.08300
5,                0.00000,       37.68687,      204.78020
6,                0.00000,       20.72865,      194.89720
7,                0.00000,       50.80000,      254.00000
8,                0.00000,       78.89831,      215.59070
9,                0.00000,       64.84916,      234.79530
10,               0.00000,       56.40737,      219.27830
11,               0.00000,       42.35821,      238.48300
12,               0.00000,        0.00000,      254.00000
13,               0.00000,        0.00000,      228.60000
14,               0.00000,       16.95821,      238.48300
15,               0.00000,       25.40000,      254.00000
16,               0.00000,      203.20000,      254.00000
17,               0.00000,      254.00000,      254.00000
18,               0.00000,      218.53280,      220.17480
19,               0.00000,      228.60000,      254.00000
20,               0.00000,      236.26640,      237.08740
** ... 1449 like lines cut
**
**ELSET COUNT = 800
**HWCOLOR COMP          1     0
*ELEMENT, TYPE=C3D10, ELSET=Solid1
       441,       747,       748,       749,       750,       801,       802,       803,
       804,       805,       806
       442,       747,       749,       748,       751,       803,       802,       801,
       807,       808,       809
       443,       747,       751,       748,       752,       807,       809,       801,
       810,       811,       812
       444,       748,       753,       754,       755,       813,       814,       815,
       816,       817,       818
       445,       748,       753,       755,       756,       813,       817,       816,
       819,       820,       821
       446,       753,       755,       756,       757,       817,       821,       820,
       822,       823,       824
       447,       747,       752,       748,       758,       810,       812,       801,
       825,       826,       827
       448,       748,       752,       756,       758,       812,       828,       819,
       827,       826,       829
       449,       748,       752,       753,       756,       812,       830,       813,
       819,       828,       820
       450,       552,       759,       573,       760,       831,       832,       589,
       833,       834,       835
** ... 1580 like lines cut
**
**Property Definitions
**
*SOLID SECTION, ELSET=Solid1, MATERIAL=Steel
**
**Material Definitions
**
**Material:Steel
*MATERIAL,NAME=Steel
*ELASTIC,TYPE=ISO
2.08000e+005,3.00000e-001
*DENSITY
7.80000e-009,
*SPECIFIC HEAT
5.00000e-001
*CONDUCTIVITY
4.98100e-002
**
**
**Face Constraint Face_Constraint_1
**
*NSET, NSET=Face_Constraint_1
       294,       295,       296,       297,       298,       299,       300,       301,
       302,       303,       304,       305,       159,       306,       307,       308,
       309,       310,       164,       311,       165,       312,       313,       314,
       315,       316,       317,       318,       319,       320,       321,       322,
       323,       324,       325,       326,       327,       328,       329,       330,
       331,       332,       333,       334,       335,       336,       337,       338,
       339,       340,       341,       342,       343,       344,       345,       346,
       347,       348,       349,       350,       351,       352,       353,       354,
       355,       356,       357,       358,       359,       360,       361,       362,
       363,       364,       365,       366,       367,       368,       369,       370,
       371,       372,       373,       374,       228,       375,       376,       377,
       378,       379,       380,       381,       382,       383,       384,       385,
       386,       387,       388,       389,       390,       244,       391,       392,
       393,       394,       395,       396,       397,       398,       399,       400,
       401,       402,       403,       257,       404,       405,       406,       407,
       408,       409,       410,       411,       412,       413,       267,       268,
       269,       270,       271,       280,       281,       282,       283,       284,
       285,       286,       287,       288,       289,       290,       291,       292,
       293,
**
*BOUNDARY
**Fixed constraints:Face_Constraint_1
Face_Constraint_1,	1
Face_Constraint_1,	2
Face_Constraint_1,	3
Face_Constraint_1,	4
Face_Constraint_1,	5
Face_Constraint_1,	6
**
*Step,name=Step1,perturbation
Frequency Step
*Frequency,eigenSolver=Lanczos,acoustic coupling=off,normalization=displacement
10,1.000000,100.000000,1.002000, , 
** Output Requests
*output,field,Variable=ALL
*El Print, Frequency=1
*Node Print, Frequency=1
*Node File
*El File
*Restart, Write
*End Step