*NODE
1, 0.0, 0.0, 0.0
2, 1.0, 0.0, 0.0
3, 1.0, 1.0, 0.0
4, 0.0, 1.0, 0.0
5, 0.0, 0.0, 1.0
6, 1.0, 0.0, 1.0
7, 1.0, 1.0, 1.0
8, 0.0, 1.0, 1.0
9, 0.5, 0.5, 2.0
*ELEMENT, TYPE=C3D8, ELSET=BRICK
1, 1, 2, 3, 4, 5, 6, 7, 8
*ELEMENT, TYPE=DCOUP3D, ELSET=ROTATEELEMENT
9, 9
*NSET, NSET=FIXED
1, 2, 3, 4
*NSET, NSET=COUPLESET
5, 6, 7, 8
*MATERIAL, NAME=MAT
*ELASTIC
2.08000e+005, 3.00000e-001
*DENSITY
7.80000e-009,
*SOLID SECTION, ELSET=BRICK, MATERIAL=MAT
*DISTRIBUTING COUPLING, ELSET=ROTATEELEMENT
COUPLESET, 1.0
*BOUNDARY
FIXED, 1, 3, 0.0
*STEP
*STATIC
*CLOAD
9, 6, 1.0e3
*NODE PRINT
U
*END STEP
