*HEADING
Abaqus Job Created By SimLab 2017.2 .
*******************************************************************************
****		Created at 10:57:5, June 20,2018
****		NODES= 65
****		ELEMENTS= 27
*******************************************************************************
**NSET COUNT = 65
*NODE,NSET=NALL
1,                0.00000,        0.00000,      120.00000
2,               40.00000,        0.00000,      120.00000
3,               80.00000,        0.00000,      120.00000
4,              120.00000,        0.00000,      120.00000
5,                0.00000,       40.00000,      120.00000
6,               40.00000,       40.00000,      120.00000
7,               80.00000,       40.00000,      120.00000
8,              120.00000,       40.00000,      120.00000
9,                0.00000,       80.00000,      120.00000
10,              40.00000,       80.00000,      120.00000
11,              80.00000,       80.00000,      120.00000
12,             120.00000,       80.00000,      120.00000
13,               0.00000,      120.00000,      120.00000
14,              40.00000,      120.00000,      120.00000
15,              80.00000,      120.00000,      120.00000
16,             120.00000,      120.00000,      120.00000
17,               0.00000,        0.00000,       80.00000
18,              40.00000,        0.00000,       80.00000
19,              80.00000,        0.00000,       80.00000
20,             120.00000,        0.00000,       80.00000
** ... 45 like lines cut
**
*ELEMENT,TYPE=DCOUP3D,ELSET=RBE_65
65, 65
*DISTRIBUTING COUPLING,ELSET=RBE_65
         1, 1.000000
         2, 1.000000
         3, 1.000000
         4, 1.000000
         5, 1.000000
         6, 1.000000
         7, 1.000000
         8, 1.000000
         9, 1.000000
        10, 1.000000
        11, 1.000000
        12, 1.000000
        13, 1.000000
        14, 1.000000
        15, 1.000000
        16, 1.000000
**HWCOLOR COMP         56     0
**
**ELSET COUNT = 27
**HWCOLOR COMP          1     0
*ELEMENT, TYPE=C3D8, ELSET=Body1
         1,         1,         5,         6,         2,        17,        21,        22,
        18
         2,         2,         6,         7,         3,        18,        22,        23,
        19
         3,         3,         7,         8,         4,        19,        23,        24,
        20
         4,         5,         9,        10,         6,        21,        25,        26,
        22
         5,         6,        10,        11,         7,        22,        26,        27,
        23
         6,         7,        11,        12,         8,        23,        27,        28,
        24
         7,         9,        13,        14,        10,        25,        29,        30,
        26
         8,        10,        14,        15,        11,        26,        30,        31,
        27
         9,        11,        15,        16,        12,        27,        31,        32,
        28
        10,        17,        21,        22,        18,        33,        37,        38,
        34
** ... 34 like lines cut
**
**NSET COUNT = 16
*NSET, NSET=Coupling_nodes_set
         1,         2,         3,         4,         5,         6,         7,         8,
         9,        10,        11,        12,        13,        14,        15,        16,
**NSET COUNT = 16
*NSET, NSET=Fixed_face_set
        49,        50,        51,        52,        53,        54,        55,        56,
        57,        58,        59,        60,        61,        62,        63,        64,
**Property Definitions
**
*SOLID SECTION, ELSET=Body1, MATERIAL=Material1
**
**Material Definitions
**
**Material:Material1
*MATERIAL,NAME=Material1
*ELASTIC,TYPE=ISO
2.08000e+005,3.00000e-001
*DENSITY
7.80000e-009,
*SPECIFIC HEAT
5.00000e-001
*CONDUCTIVITY
4.98100e-002
**
**
**Face Constraint Face_Constraint_4
**
*NSET, NSET=Face_Constraint_4
        51,        52,        53,        54,        55,        56,        57,        58,
        59,        60,        61,        62,        63,        64,        49,        50,
**
**Force Force_3
*NSET, NSET=Force_3
        65,
*BOUNDARY
**Fixed constraints:Face_Constraint_4
Face_Constraint_4,	1
Face_Constraint_4,	2
Face_Constraint_4,	3
**
*Step,inc=100
*Static
1.0000,1.000000,
*CLOAD
Force_3,6,500.0e6
**
** Output Requests
*output,field,Variable=PRESELECT
*NODE PRINT, NSET=Coupling_nodes_set
U,
*NODE FILE, FREQUENCY=99
U,V,RF,NT
*Restart, Write
*End Step
